  Page 1                                    Sat Oct 29 01:31:11 2016

  ******************************************************************
  *                           E P A N E T                          *
  *                   Hydraulic and Water Quality                  *
  *                   Analysis for Pipe Networks                   *
  *                         Version 2.00.12                        *
  ******************************************************************
  
  Analysis begun Sat Oct 29 01:31:11 2016

  Analysis ended Sat Oct 29 01:31:11 2016
