  Page 1                                    Tue Feb 21 22:09:17 2017

  ******************************************************************
  *                           E P A N E T                          *
  *                   Hydraulic and Water Quality                  *
  *                   Analysis for Pipe Networks                   *
  *                         Version 2.00.12                        *
  ******************************************************************
  
   
      Input Data File ................... /home/ecoslacker/Dropbox/projects/networks_design/data/TwoLoop.inp
      Number of Junctions................ 6
      Number of Reservoirs............... 1
      Number of Tanks ................... 0
      Number of Pipes ................... 8
      Number of Pumps ................... 0
      Number of Valves .................. 0
      Headloss Formula .................. Hazen-Williams
      Hydraulic Timestep ................ 1.00 hrs
      Hydraulic Accuracy ................ 0.001000
      Status Check Frequency ............ 2
      Maximum Trials Checked ............ 10
      Damping Limit Threshold ........... 0.000000
      Maximum Trials .................... 40
      Quality Analysis .................. None
      Specific Gravity .................. 1.00
      Relative Kinematic Viscosity ...... 0.00
      Relative Chemical Diffusivity ..... 1.00
      Demand Multiplier ................. 1.00
      Total Duration .................... 0.00 hrs
      Reporting Criteria:
         All Nodes
         All Links
   
  Analysis begun Tue Feb 21 22:09:17 2017

  WARNING: Negative pressures at 0:00:00 hrs.
  
  WARNING: Negative pressures at 0:00:00 hrs.
  
  WARNING: Negative pressures at 0:00:00 hrs.
  
  WARNING: Negative pressures at 0:00:00 hrs.
  
  WARNING: Negative pressures at 0:00:00 hrs.
  
  WARNING: Negative pressures at 0:00:00 hrs.
  
  WARNING: Negative pressures at 0:00:00 hrs.
  
  WARNING: Negative pressures at 0:00:00 hrs.
  
  WARNING: Negative pressures at 0:00:00 hrs.
  
  WARNING: Negative pressures at 0:00:00 hrs.
  
  WARNING: Negative pressures at 0:00:00 hrs.
  
  WARNING: Negative pressures at 0:00:00 hrs.
  
  WARNING: Negative pressures at 0:00:00 hrs.
  
  WARNING: Negative pressures at 0:00:00 hrs.
  
  WARNING: Negative pressures at 0:00:00 hrs.
  
  WARNING: Negative pressures at 0:00:00 hrs.
  
  WARNING: Negative pressures at 0:00:00 hrs.
  
  WARNING: Negative pressures at 0:00:00 hrs.
  
  WARNING: Negative pressures at 0:00:00 hrs.
  
  WARNING: Negative pressures at 0:00:00 hrs.
  
  WARNING: Negative pressures at 0:00:00 hrs.
  
  WARNING: Negative pressures at 0:00:00 hrs.
  
  WARNING: Negative pressures at 0:00:00 hrs.
  
  WARNING: Negative pressures at 0:00:00 hrs.
  
  WARNING: Negative pressures at 0:00:00 hrs.
  
  WARNING: Negative pressures at 0:00:00 hrs.
  
  WARNING: Negative pressures at 0:00:00 hrs.
  
  WARNING: Negative pressures at 0:00:00 hrs.
  
  WARNING: Negative pressures at 0:00:00 hrs.
  
  WARNING: Negative pressures at 0:00:00 hrs.
  
  WARNING: Negative pressures at 0:00:00 hrs.
  
  WARNING: Negative pressures at 0:00:00 hrs.
  
  WARNING: Negative pressures at 0:00:00 hrs.
  
  WARNING: Negative pressures at 0:00:00 hrs.
  
  WARNING: Negative pressures at 0:00:00 hrs.
  
  WARNING: Negative pressures at 0:00:00 hrs.
  
  WARNING: Negative pressures at 0:00:00 hrs.
  
  WARNING: Negative pressures at 0:00:00 hrs.
  
  WARNING: Negative pressures at 0:00:00 hrs.
  
  WARNING: Negative pressures at 0:00:00 hrs.
  
  WARNING: Negative pressures at 0:00:00 hrs.
  
  WARNING: Negative pressures at 0:00:00 hrs.
  
  WARNING: Negative pressures at 0:00:00 hrs.
  
  WARNING: Negative pressures at 0:00:00 hrs.
  
  WARNING: Negative pressures at 0:00:00 hrs.
  
  WARNING: Negative pressures at 0:00:00 hrs.
  
  WARNING: Negative pressures at 0:00:00 hrs.
  
  WARNING: Negative pressures at 0:00:00 hrs.
  
  WARNING: Negative pressures at 0:00:00 hrs.
  
  WARNING: Negative pressures at 0:00:00 hrs.
  
  WARNING: Negative pressures at 0:00:00 hrs.
  
  WARNING: Negative pressures at 0:00:00 hrs.
  
  WARNING: Negative pressures at 0:00:00 hrs.
  
  WARNING: Negative pressures at 0:00:00 hrs.
  
  WARNING: Negative pressures at 0:00:00 hrs.
  
  WARNING: Negative pressures at 0:00:00 hrs.
  
  WARNING: Negative pressures at 0:00:00 hrs.
  
  WARNING: Negative pressures at 0:00:00 hrs.
  
  WARNING: Negative pressures at 0:00:00 hrs.
  
  WARNING: Negative pressures at 0:00:00 hrs.
  
  WARNING: Negative pressures at 0:00:00 hrs.
  
  WARNING: Negative pressures at 0:00:00 hrs.
  
  WARNING: Negative pressures at 0:00:00 hrs.
  
  WARNING: Negative pressures at 0:00:00 hrs.
  
  WARNING: Negative pressures at 0:00:00 hrs.
  
  WARNING: Negative pressures at 0:00:00 hrs.
  
  WARNING: Negative pressures at 0:00:00 hrs.
  
  WARNING: Negative pressures at 0:00:00 hrs.
  
  WARNING: Negative pressures at 0:00:00 hrs.
  
  WARNING: Negative pressures at 0:00:00 hrs.
  
  WARNING: Negative pressures at 0:00:00 hrs.
  
  WARNING: Negative pressures at 0:00:00 hrs.
  
  WARNING: Negative pressures at 0:00:00 hrs.
  
  WARNING: Negative pressures at 0:00:00 hrs.
  
  WARNING: Negative pressures at 0:00:00 hrs.
  
  WARNING: Negative pressures at 0:00:00 hrs.
  
  WARNING: Negative pressures at 0:00:00 hrs.
  
  WARNING: Negative pressures at 0:00:00 hrs.
  
  WARNING: Negative pressures at 0:00:00 hrs.
  
  WARNING: Negative pressures at 0:00:00 hrs.
  
  WARNING: Negative pressures at 0:00:00 hrs.
  
  WARNING: Negative pressures at 0:00:00 hrs.
  
  WARNING: Negative pressures at 0:00:00 hrs.
  
  WARNING: Negative pressures at 0:00:00 hrs.
  
  WARNING: Negative pressures at 0:00:00 hrs.
  
  WARNING: Negative pressures at 0:00:00 hrs.
  
  WARNING: Negative pressures at 0:00:00 hrs.
  
  WARNING: Negative pressures at 0:00:00 hrs.
  
  WARNING: Negative pressures at 0:00:00 hrs.
  
  WARNING: Negative pressures at 0:00:00 hrs.
  
  WARNING: Negative pressures at 0:00:00 hrs.
  
  WARNING: Negative pressures at 0:00:00 hrs.
  
  WARNING: Negative pressures at 0:00:00 hrs.
  
  WARNING: Negative pressures at 0:00:00 hrs.
  
  WARNING: Negative pressures at 0:00:00 hrs.
  
  WARNING: Negative pressures at 0:00:00 hrs.
  
  WARNING: Negative pressures at 0:00:00 hrs.
  
  WARNING: Negative pressures at 0:00:00 hrs.
  
  WARNING: Negative pressures at 0:00:00 hrs.
  
  WARNING: Negative pressures at 0:00:00 hrs.
  
  WARNING: Negative pressures at 0:00:00 hrs.
  
  WARNING: Negative pressures at 0:00:00 hrs.
  
  WARNING: Negative pressures at 0:00:00 hrs.
  
  WARNING: Negative pressures at 0:00:00 hrs.
  
  WARNING: Negative pressures at 0:00:00 hrs.
  
  WARNING: Negative pressures at 0:00:00 hrs.
  
  WARNING: Negative pressures at 0:00:00 hrs.
  
  WARNING: Negative pressures at 0:00:00 hrs.
  
  WARNING: Negative pressures at 0:00:00 hrs.
  
  WARNING: Negative pressures at 0:00:00 hrs.
  
  WARNING: Negative pressures at 0:00:00 hrs.
  
  WARNING: Negative pressures at 0:00:00 hrs.
  
  WARNING: Negative pressures at 0:00:00 hrs.
  
  WARNING: Negative pressures at 0:00:00 hrs.
  
  WARNING: Negative pressures at 0:00:00 hrs.
  
  WARNING: Negative pressures at 0:00:00 hrs.
  
  WARNING: Negative pressures at 0:00:00 hrs.
  
  WARNING: Negative pressures at 0:00:00 hrs.
  
  WARNING: Negative pressures at 0:00:00 hrs.
  
  WARNING: Negative pressures at 0:00:00 hrs.
  
  WARNING: Negative pressures at 0:00:00 hrs.
  
  WARNING: Negative pressures at 0:00:00 hrs.
  
  WARNING: Negative pressures at 0:00:00 hrs.
  
  WARNING: Negative pressures at 0:00:00 hrs.
  
  WARNING: Negative pressures at 0:00:00 hrs.
  
  WARNING: Negative pressures at 0:00:00 hrs.
  
  WARNING: Negative pressures at 0:00:00 hrs.
  
  WARNING: Negative pressures at 0:00:00 hrs.
  
  WARNING: Negative pressures at 0:00:00 hrs.
  
  WARNING: Negative pressures at 0:00:00 hrs.
  
  WARNING: Negative pressures at 0:00:00 hrs.
  
  WARNING: Negative pressures at 0:00:00 hrs.
  
  WARNING: Negative pressures at 0:00:00 hrs.
  
  WARNING: Negative pressures at 0:00:00 hrs.
  
  WARNING: Negative pressures at 0:00:00 hrs.
  
  WARNING: Negative pressures at 0:00:00 hrs.
  
  WARNING: Negative pressures at 0:00:00 hrs.
  
  WARNING: Negative pressures at 0:00:00 hrs.
  
  WARNING: Negative pressures at 0:00:00 hrs.
  
  WARNING: Negative pressures at 0:00:00 hrs.
  
  WARNING: Negative pressures at 0:00:00 hrs.
  
  WARNING: Negative pressures at 0:00:00 hrs.
  
  WARNING: Negative pressures at 0:00:00 hrs.
  
  WARNING: Negative pressures at 0:00:00 hrs.
  
  WARNING: Negative pressures at 0:00:00 hrs.
  
  WARNING: Negative pressures at 0:00:00 hrs.
  
  WARNING: Negative pressures at 0:00:00 hrs.
  
  WARNING: Negative pressures at 0:00:00 hrs.
  
  WARNING: Negative pressures at 0:00:00 hrs.
  
  WARNING: Negative pressures at 0:00:00 hrs.
  
  WARNING: Negative pressures at 0:00:00 hrs.
  
  WARNING: Negative pressures at 0:00:00 hrs.
  
  WARNING: Negative pressures at 0:00:00 hrs.
  
  WARNING: Negative pressures at 0:00:00 hrs.
  
  WARNING: Negative pressures at 0:00:00 hrs.
  
  WARNING: Negative pressures at 0:00:00 hrs.
  
  WARNING: Negative pressures at 0:00:00 hrs.
  
  WARNING: Negative pressures at 0:00:00 hrs.
  
  WARNING: Negative pressures at 0:00:00 hrs.
  
  WARNING: Negative pressures at 0:00:00 hrs.
  
  WARNING: Negative pressures at 0:00:00 hrs.
  
  WARNING: Negative pressures at 0:00:00 hrs.
  
  WARNING: Negative pressures at 0:00:00 hrs.
  
  WARNING: Negative pressures at 0:00:00 hrs.
  
  WARNING: Negative pressures at 0:00:00 hrs.
  
  WARNING: Negative pressures at 0:00:00 hrs.
  
  WARNING: Negative pressures at 0:00:00 hrs.
  
  WARNING: Negative pressures at 0:00:00 hrs.
  
  WARNING: Negative pressures at 0:00:00 hrs.
  
  WARNING: Negative pressures at 0:00:00 hrs.
  
  WARNING: Negative pressures at 0:00:00 hrs.
  
  WARNING: Negative pressures at 0:00:00 hrs.
  
  WARNING: Negative pressures at 0:00:00 hrs.
  
  WARNING: Negative pressures at 0:00:00 hrs.
  
  WARNING: Negative pressures at 0:00:00 hrs.
  
  WARNING: Negative pressures at 0:00:00 hrs.
  
  WARNING: Negative pressures at 0:00:00 hrs.
  
  WARNING: Negative pressures at 0:00:00 hrs.
  
  WARNING: Negative pressures at 0:00:00 hrs.
  
  WARNING: Negative pressures at 0:00:00 hrs.
  
  WARNING: Negative pressures at 0:00:00 hrs.
  
  WARNING: Negative pressures at 0:00:00 hrs.
  
  WARNING: Negative pressures at 0:00:00 hrs.
  
  WARNING: Negative pressures at 0:00:00 hrs.
  
  WARNING: Negative pressures at 0:00:00 hrs.
  
  WARNING: Negative pressures at 0:00:00 hrs.
  
  WARNING: Negative pressures at 0:00:00 hrs.
  
  WARNING: Negative pressures at 0:00:00 hrs.
  
  WARNING: Negative pressures at 0:00:00 hrs.
  
  WARNING: Negative pressures at 0:00:00 hrs.
  
  WARNING: Negative pressures at 0:00:00 hrs.
  
  WARNING: Negative pressures at 0:00:00 hrs.
  
  WARNING: Negative pressures at 0:00:00 hrs.
  
  WARNING: Negative pressures at 0:00:00 hrs.
  
  WARNING: Negative pressures at 0:00:00 hrs.
  
  WARNING: Negative pressures at 0:00:00 hrs.
  
  WARNING: Negative pressures at 0:00:00 hrs.
  
  WARNING: Negative pressures at 0:00:00 hrs.
  
  WARNING: Negative pressures at 0:00:00 hrs.
  
  WARNING: Negative pressures at 0:00:00 hrs.
  
  WARNING: Negative pressures at 0:00:00 hrs.
  
  WARNING: Negative pressures at 0:00:00 hrs.
  
  WARNING: Negative pressures at 0:00:00 hrs.
  
  WARNING: Negative pressures at 0:00:00 hrs.
  
  WARNING: Negative pressures at 0:00:00 hrs.
  
  WARNING: Negative pressures at 0:00:00 hrs.
  
  WARNING: Negative pressures at 0:00:00 hrs.
  
  WARNING: Negative pressures at 0:00:00 hrs.
  
  WARNING: Negative pressures at 0:00:00 hrs.
  
  WARNING: Negative pressures at 0:00:00 hrs.
  
  WARNING: Negative pressures at 0:00:00 hrs.
  
  WARNING: Negative pressures at 0:00:00 hrs.
  
  WARNING: Negative pressures at 0:00:00 hrs.
  
  WARNING: Negative pressures at 0:00:00 hrs.
  
  WARNING: Negative pressures at 0:00:00 hrs.
  
  WARNING: Negative pressures at 0:00:00 hrs.
  
  WARNING: Negative pressures at 0:00:00 hrs.
  
  WARNING: Negative pressures at 0:00:00 hrs.
  
  WARNING: Negative pressures at 0:00:00 hrs.
  
  WARNING: Negative pressures at 0:00:00 hrs.
  
  WARNING: Negative pressures at 0:00:00 hrs.
  
  WARNING: Negative pressures at 0:00:00 hrs.
  
  WARNING: Negative pressures at 0:00:00 hrs.
  
  WARNING: Negative pressures at 0:00:00 hrs.
  
  WARNING: Negative pressures at 0:00:00 hrs.
  
  WARNING: Negative pressures at 0:00:00 hrs.
  
  WARNING: Negative pressures at 0:00:00 hrs.
  
  WARNING: Negative pressures at 0:00:00 hrs.
  
  WARNING: Negative pressures at 0:00:00 hrs.
  
  WARNING: Negative pressures at 0:00:00 hrs.
  
  WARNING: Negative pressures at 0:00:00 hrs.
  
  WARNING: Negative pressures at 0:00:00 hrs.
  
  WARNING: Negative pressures at 0:00:00 hrs.
  
  WARNING: Negative pressures at 0:00:00 hrs.
  
  WARNING: Negative pressures at 0:00:00 hrs.
  
  WARNING: Negative pressures at 0:00:00 hrs.
  
  WARNING: Negative pressures at 0:00:00 hrs.
  
  WARNING: Negative pressures at 0:00:00 hrs.
  
  WARNING: Negative pressures at 0:00:00 hrs.
  
  WARNING: Negative pressures at 0:00:00 hrs.
  
  WARNING: Negative pressures at 0:00:00 hrs.
  
  WARNING: Negative pressures at 0:00:00 hrs.
  
  WARNING: Negative pressures at 0:00:00 hrs.
  
  WARNING: Negative pressures at 0:00:00 hrs.
  
  WARNING: Negative pressures at 0:00:00 hrs.
  
  WARNING: Negative pressures at 0:00:00 hrs.
  
  WARNING: Negative pressures at 0:00:00 hrs.
  
  WARNING: Negative pressures at 0:00:00 hrs.
  
  WARNING: Negative pressures at 0:00:00 hrs.
  
  WARNING: Negative pressures at 0:00:00 hrs.
  
  WARNING: Negative pressures at 0:00:00 hrs.
  
  WARNING: Negative pressures at 0:00:00 hrs.
  
  WARNING: Negative pressures at 0:00:00 hrs.
  
  WARNING: Negative pressures at 0:00:00 hrs.
  
  WARNING: Negative pressures at 0:00:00 hrs.
  
  WARNING: Negative pressures at 0:00:00 hrs.
  
  WARNING: Negative pressures at 0:00:00 hrs.
  
  WARNING: Negative pressures at 0:00:00 hrs.
  
  WARNING: Negative pressures at 0:00:00 hrs.
  
  WARNING: Negative pressures at 0:00:00 hrs.
  
  WARNING: Negative pressures at 0:00:00 hrs.
  
  WARNING: Negative pressures at 0:00:00 hrs.
  
  WARNING: Negative pressures at 0:00:00 hrs.
  
  WARNING: Negative pressures at 0:00:00 hrs.
  
  WARNING: Negative pressures at 0:00:00 hrs.
  
  WARNING: Negative pressures at 0:00:00 hrs.
  
  WARNING: Negative pressures at 0:00:00 hrs.
  
  WARNING: Negative pressures at 0:00:00 hrs.
  
  WARNING: Negative pressures at 0:00:00 hrs.
  
  WARNING: Negative pressures at 0:00:00 hrs.
  
  WARNING: Negative pressures at 0:00:00 hrs.
  
  WARNING: Negative pressures at 0:00:00 hrs.
  
  WARNING: Negative pressures at 0:00:00 hrs.
  
  WARNING: Negative pressures at 0:00:00 hrs.
  
  WARNING: Negative pressures at 0:00:00 hrs.
  
  WARNING: Negative pressures at 0:00:00 hrs.
  
  WARNING: Negative pressures at 0:00:00 hrs.
  
  WARNING: Negative pressures at 0:00:00 hrs.
  
  WARNING: Negative pressures at 0:00:00 hrs.
  
  WARNING: Negative pressures at 0:00:00 hrs.
  
  WARNING: Negative pressures at 0:00:00 hrs.
  
  WARNING: Negative pressures at 0:00:00 hrs.
  
  WARNING: Negative pressures at 0:00:00 hrs.
  
  WARNING: Negative pressures at 0:00:00 hrs.
  
  WARNING: Negative pressures at 0:00:00 hrs.
  
  WARNING: Negative pressures at 0:00:00 hrs.
  
  WARNING: Negative pressures at 0:00:00 hrs.
  
  WARNING: Negative pressures at 0:00:00 hrs.
  
  WARNING: Negative pressures at 0:00:00 hrs.
  
  WARNING: Negative pressures at 0:00:00 hrs.
  
  WARNING: Negative pressures at 0:00:00 hrs.
  
  WARNING: Negative pressures at 0:00:00 hrs.
  
  WARNING: Negative pressures at 0:00:00 hrs.
  
  WARNING: Negative pressures at 0:00:00 hrs.
  
  WARNING: Negative pressures at 0:00:00 hrs.
  
  WARNING: Negative pressures at 0:00:00 hrs.
  
  WARNING: Negative pressures at 0:00:00 hrs.
  
  WARNING: Negative pressures at 0:00:00 hrs.
  
  WARNING: Negative pressures at 0:00:00 hrs.
  
  WARNING: Negative pressures at 0:00:00 hrs.
  
  WARNING: Negative pressures at 0:00:00 hrs.
  
  WARNING: Negative pressures at 0:00:00 hrs.
  
  WARNING: Negative pressures at 0:00:00 hrs.
  
  WARNING: Negative pressures at 0:00:00 hrs.
  
  WARNING: Negative pressures at 0:00:00 hrs.
  
  WARNING: Negative pressures at 0:00:00 hrs.
  
  WARNING: Negative pressures at 0:00:00 hrs.
  
  WARNING: Negative pressures at 0:00:00 hrs.
  
  WARNING: Negative pressures at 0:00:00 hrs.
  
  WARNING: Negative pressures at 0:00:00 hrs.
  
  WARNING: Negative pressures at 0:00:00 hrs.
  
  WARNING: Negative pressures at 0:00:00 hrs.
  
  WARNING: Negative pressures at 0:00:00 hrs.
  
  WARNING: Negative pressures at 0:00:00 hrs.
  
  WARNING: Negative pressures at 0:00:00 hrs.
  
  WARNING: Negative pressures at 0:00:00 hrs.
  
  WARNING: Negative pressures at 0:00:00 hrs.
  
  WARNING: Negative pressures at 0:00:00 hrs.
  
  WARNING: Negative pressures at 0:00:00 hrs.
  
  WARNING: Negative pressures at 0:00:00 hrs.
  
  WARNING: Negative pressures at 0:00:00 hrs.
  
  WARNING: Negative pressures at 0:00:00 hrs.
  
  WARNING: Negative pressures at 0:00:00 hrs.
  
  WARNING: Negative pressures at 0:00:00 hrs.
  
  WARNING: Negative pressures at 0:00:00 hrs.
  
  WARNING: Negative pressures at 0:00:00 hrs.
  
  WARNING: Negative pressures at 0:00:00 hrs.
  
  WARNING: Negative pressures at 0:00:00 hrs.
  
  WARNING: Negative pressures at 0:00:00 hrs.
  
  WARNING: Negative pressures at 0:00:00 hrs.
  
  WARNING: Negative pressures at 0:00:00 hrs.
  
  WARNING: Negative pressures at 0:00:00 hrs.
  
  WARNING: Negative pressures at 0:00:00 hrs.
  
  WARNING: Negative pressures at 0:00:00 hrs.
  
  WARNING: Negative pressures at 0:00:00 hrs.
  
  WARNING: Negative pressures at 0:00:00 hrs.
  
  WARNING: Negative pressures at 0:00:00 hrs.
  
  WARNING: Negative pressures at 0:00:00 hrs.
  
  WARNING: Negative pressures at 0:00:00 hrs.
  
  WARNING: Negative pressures at 0:00:00 hrs.
  
  WARNING: Negative pressures at 0:00:00 hrs.
  
  WARNING: Negative pressures at 0:00:00 hrs.
  
  WARNING: Negative pressures at 0:00:00 hrs.
  
  WARNING: Negative pressures at 0:00:00 hrs.
  
  WARNING: Negative pressures at 0:00:00 hrs.
  
  WARNING: Negative pressures at 0:00:00 hrs.
  
  WARNING: Negative pressures at 0:00:00 hrs.
  
  WARNING: Negative pressures at 0:00:00 hrs.
  
  WARNING: Negative pressures at 0:00:00 hrs.
  
  WARNING: Negative pressures at 0:00:00 hrs.
  
  WARNING: Negative pressures at 0:00:00 hrs.
  
  WARNING: Negative pressures at 0:00:00 hrs.
  
  WARNING: Negative pressures at 0:00:00 hrs.
  
  WARNING: Negative pressures at 0:00:00 hrs.
  
  WARNING: Negative pressures at 0:00:00 hrs.
  
  WARNING: Negative pressures at 0:00:00 hrs.
  
  WARNING: Negative pressures at 0:00:00 hrs.
  
  WARNING: Negative pressures at 0:00:00 hrs.
  
  WARNING: Negative pressures at 0:00:00 hrs.
  
  WARNING: Negative pressures at 0:00:00 hrs.
  
  WARNING: Negative pressures at 0:00:00 hrs.
  
  WARNING: Negative pressures at 0:00:00 hrs.
  
  WARNING: Negative pressures at 0:00:00 hrs.
  
  WARNING: Negative pressures at 0:00:00 hrs.
  
  WARNING: Negative pressures at 0:00:00 hrs.
  
  WARNING: Negative pressures at 0:00:00 hrs.
  
  WARNING: Negative pressures at 0:00:00 hrs.
  
  WARNING: Negative pressures at 0:00:00 hrs.
  
  WARNING: Negative pressures at 0:00:00 hrs.
  
  WARNING: Negative pressures at 0:00:00 hrs.
  
  WARNING: Negative pressures at 0:00:00 hrs.
  
  WARNING: Negative pressures at 0:00:00 hrs.
  
  WARNING: Negative pressures at 0:00:00 hrs.
  
  WARNING: Negative pressures at 0:00:00 hrs.
  
  WARNING: Negative pressures at 0:00:00 hrs.
  
  WARNING: Negative pressures at 0:00:00 hrs.
  
  WARNING: Negative pressures at 0:00:00 hrs.
  
  WARNING: Negative pressures at 0:00:00 hrs.
  
  WARNING: Negative pressures at 0:00:00 hrs.
  
  WARNING: Negative pressures at 0:00:00 hrs.
  
  WARNING: Negative pressures at 0:00:00 hrs.
  
  WARNING: Negative pressures at 0:00:00 hrs.
  
  WARNING: Negative pressures at 0:00:00 hrs.
  
  WARNING: Negative pressures at 0:00:00 hrs.
  
  WARNING: Negative pressures at 0:00:00 hrs.
  
  WARNING: Negative pressures at 0:00:00 hrs.
  
  WARNING: Negative pressures at 0:00:00 hrs.
  
  WARNING: Negative pressures at 0:00:00 hrs.
  
  WARNING: Negative pressures at 0:00:00 hrs.
  
  WARNING: Negative pressures at 0:00:00 hrs.
  
  WARNING: Negative pressures at 0:00:00 hrs.
  
  WARNING: Negative pressures at 0:00:00 hrs.
  
  WARNING: Negative pressures at 0:00:00 hrs.
  
  WARNING: Negative pressures at 0:00:00 hrs.
  
  WARNING: Negative pressures at 0:00:00 hrs.
  
  WARNING: Negative pressures at 0:00:00 hrs.
  
  WARNING: Negative pressures at 0:00:00 hrs.
  
  WARNING: Negative pressures at 0:00:00 hrs.
  
  WARNING: Negative pressures at 0:00:00 hrs.
  
  WARNING: Negative pressures at 0:00:00 hrs.
  
  WARNING: Negative pressures at 0:00:00 hrs.
  
  WARNING: Negative pressures at 0:00:00 hrs.
  
  WARNING: Negative pressures at 0:00:00 hrs.
  
  WARNING: Negative pressures at 0:00:00 hrs.
  
  WARNING: Negative pressures at 0:00:00 hrs.
  
  WARNING: Negative pressures at 0:00:00 hrs.
  
  WARNING: Negative pressures at 0:00:00 hrs.
  
  WARNING: Negative pressures at 0:00:00 hrs.
  
  WARNING: Negative pressures at 0:00:00 hrs.
  
  WARNING: Negative pressures at 0:00:00 hrs.
  
  WARNING: Negative pressures at 0:00:00 hrs.
  
  WARNING: Negative pressures at 0:00:00 hrs.
  
  WARNING: Negative pressures at 0:00:00 hrs.
  
  WARNING: Negative pressures at 0:00:00 hrs.
  
  WARNING: Negative pressures at 0:00:00 hrs.
  
  WARNING: Negative pressures at 0:00:00 hrs.
  
  WARNING: Negative pressures at 0:00:00 hrs.
  
  WARNING: Negative pressures at 0:00:00 hrs.
  
  WARNING: Negative pressures at 0:00:00 hrs.
  
  WARNING: Negative pressures at 0:00:00 hrs.
  
  WARNING: Negative pressures at 0:00:00 hrs.
  
  WARNING: Negative pressures at 0:00:00 hrs.
  
  WARNING: Negative pressures at 0:00:00 hrs.
  
  WARNING: Negative pressures at 0:00:00 hrs.
  
  WARNING: Negative pressures at 0:00:00 hrs.
  
  WARNING: Negative pressures at 0:00:00 hrs.
  
  WARNING: Negative pressures at 0:00:00 hrs.
  
  WARNING: Negative pressures at 0:00:00 hrs.
  
  WARNING: Negative pressures at 0:00:00 hrs.
  
  WARNING: Negative pressures at 0:00:00 hrs.
  
  WARNING: Negative pressures at 0:00:00 hrs.
  
  WARNING: Negative pressures at 0:00:00 hrs.
  
  WARNING: Negative pressures at 0:00:00 hrs.
  
  WARNING: Negative pressures at 0:00:00 hrs.
  
  WARNING: Negative pressures at 0:00:00 hrs.
  
  WARNING: Negative pressures at 0:00:00 hrs.
  
  WARNING: Negative pressures at 0:00:00 hrs.
  
  WARNING: Negative pressures at 0:00:00 hrs.
  
  WARNING: Negative pressures at 0:00:00 hrs.
  
  WARNING: Negative pressures at 0:00:00 hrs.
  
  WARNING: Negative pressures at 0:00:00 hrs.
  
  WARNING: Negative pressures at 0:00:00 hrs.
  
  WARNING: Negative pressures at 0:00:00 hrs.
  
  WARNING: Negative pressures at 0:00:00 hrs.
  
  WARNING: Negative pressures at 0:00:00 hrs.
  
  WARNING: Negative pressures at 0:00:00 hrs.
  
  WARNING: Negative pressures at 0:00:00 hrs.
  
  WARNING: Negative pressures at 0:00:00 hrs.
  
  WARNING: Negative pressures at 0:00:00 hrs.
  
  WARNING: Negative pressures at 0:00:00 hrs.
  
  WARNING: Negative pressures at 0:00:00 hrs.
  
  WARNING: Negative pressures at 0:00:00 hrs.
  
  WARNING: Negative pressures at 0:00:00 hrs.
  
  WARNING: Negative pressures at 0:00:00 hrs.
  
  WARNING: Negative pressures at 0:00:00 hrs.
  
  WARNING: Negative pressures at 0:00:00 hrs.
  
  WARNING: Negative pressures at 0:00:00 hrs.
  
  WARNING: Negative pressures at 0:00:00 hrs.
  
  WARNING: Negative pressures at 0:00:00 hrs.
  
  WARNING: Negative pressures at 0:00:00 hrs.
  
  WARNING: Negative pressures at 0:00:00 hrs.
  
  WARNING: Negative pressures at 0:00:00 hrs.
  
  WARNING: Negative pressures at 0:00:00 hrs.
  
  WARNING: Negative pressures at 0:00:00 hrs.
  
  WARNING: Negative pressures at 0:00:00 hrs.
  
  WARNING: Negative pressures at 0:00:00 hrs.
  
  WARNING: Negative pressures at 0:00:00 hrs.
  
  WARNING: Negative pressures at 0:00:00 hrs.
  
  WARNING: Negative pressures at 0:00:00 hrs.
  
  WARNING: Negative pressures at 0:00:00 hrs.
  
  WARNING: Negative pressures at 0:00:00 hrs.
  
  WARNING: Negative pressures at 0:00:00 hrs.
  
  WARNING: Negative pressures at 0:00:00 hrs.
  
  WARNING: Negative pressures at 0:00:00 hrs.
  
  WARNING: Negative pressures at 0:00:00 hrs.
  
  WARNING: Negative pressures at 0:00:00 hrs.
  
  WARNING: Negative pressures at 0:00:00 hrs.
  
  WARNING: Negative pressures at 0:00:00 hrs.
  
  WARNING: Negative pressures at 0:00:00 hrs.
  
  WARNING: Negative pressures at 0:00:00 hrs.
  
  WARNING: Negative pressures at 0:00:00 hrs.
  
  WARNING: Negative pressures at 0:00:00 hrs.
  
  WARNING: Negative pressures at 0:00:00 hrs.
  
  WARNING: Negative pressures at 0:00:00 hrs.
  
  WARNING: Negative pressures at 0:00:00 hrs.
  
  WARNING: Negative pressures at 0:00:00 hrs.
  
  WARNING: Negative pressures at 0:00:00 hrs.
  
  WARNING: Negative pressures at 0:00:00 hrs.
  
  WARNING: Negative pressures at 0:00:00 hrs.
  
  WARNING: Negative pressures at 0:00:00 hrs.
  
  WARNING: Negative pressures at 0:00:00 hrs.
  
  WARNING: Negative pressures at 0:00:00 hrs.
  
  WARNING: Negative pressures at 0:00:00 hrs.
  
  Analysis ended Tue Feb 21 22:09:21 2017
